LTspice 24.0.12 for Windows
Circuit: * E:\My_Project\PLL_Filter_Calculator\V_Out_PLL\Draft1.asc
Start Time: Tue Jul  9 12:40:23 2024
solver = Normal
Maximum thread count: 6
tnom = 27
temp = 27
method = modified trap
Direct Newton iteration for .op point succeeded.
Total elapsed time: 3.592 seconds.

